Version 4
SHEET 1 880 680
WIRE 464 -112 -304 -112
WIRE 464 -80 464 -112
WIRE -304 -32 -304 -112
WIRE 304 32 -48 32
WIRE 464 32 464 0
WIRE 464 32 304 32
WIRE 304 80 304 32
WIRE -304 96 -304 48
WIRE 464 112 464 32
WIRE 640 112 640 96
WIRE 640 112 464 112
WIRE 464 160 464 112
WIRE -48 208 -48 32
WIRE -32 208 -48 208
WIRE 48 208 32 208
WIRE 80 208 48 208
WIRE 176 208 144 208
WIRE 208 208 176 208
WIRE 304 208 304 160
WIRE 304 208 272 208
WIRE 400 208 304 208
WIRE 48 240 48 208
WIRE 176 240 176 208
WIRE 304 240 304 208
WIRE 464 272 464 256
WIRE 48 368 48 320
WIRE 176 368 176 320
WIRE 176 368 48 368
WIRE 304 368 304 320
WIRE 304 368 176 368
WIRE 464 368 464 352
WIRE 464 368 304 368
WIRE 48 400 48 368
FLAG 48 400 0
FLAG -304 96 0
FLAG 640 96 fo_1
SYMBOL res 32 224 R0
SYMATTR InstName R1
SYMATTR Value {rt_1}
SYMBOL res 160 224 R0
SYMATTR InstName R2
SYMATTR Value {rt_1}
SYMBOL res 288 224 R0
SYMATTR InstName R3
SYMATTR Value {rt_1}
SYMBOL res 320 64 M0
SYMATTR InstName R4
SYMATTR Value 330k
SYMBOL res 448 -96 R0
SYMATTR InstName R5
SYMATTR Value 2k2
SYMBOL cap -32 192 M90
WINDOW 0 0 32 VBottom 2
WINDOW 3 32 32 VTop 2
SYMATTR InstName C1
SYMATTR Value {ct_1}
SYMBOL cap 80 192 M90
WINDOW 0 0 32 VBottom 2
WINDOW 3 32 32 VTop 2
SYMATTR InstName C2
SYMATTR Value {ct_1}
SYMBOL cap 208 192 M90
WINDOW 0 0 32 VBottom 2
WINDOW 3 32 32 VTop 2
SYMATTR InstName C3
SYMATTR Value {ct_1}
SYMBOL npn 400 160 R0
SYMATTR InstName Q1
SYMATTR Value 2N3904
SYMBOL voltage -304 -48 R0
WINDOW 123 0 0 Left 0
WINDOW 39 0 0 Left 0
SYMATTR InstName V1
SYMATTR Value 6
SYMBOL res 448 256 R0
SYMATTR InstName R6
SYMATTR Value .1
TEXT -368 184 Left 2 !.param rt_1 4k7
TEXT -368 240 Left 2 !.param ct_1 10n
TEXT -160 -72 Left 2 !.tran 0 100m 0 startup
